# generated using pymatgen
data_SiO2
_symmetry_space_group_name_H-M   'P 1'
_cell_length_a   4.36335929
_cell_length_b   8.42668974
_cell_length_c   4.06461599
_cell_angle_alpha   90.00000000
_cell_angle_beta   96.21631791
_cell_angle_gamma   90.00000000
_symmetry_Int_Tables_number   1
_chemical_formula_structural   SiO2
_chemical_formula_sum   'Si4 O8'
_cell_volume   148.57179972
_cell_formula_units_Z   4
loop_
 _symmetry_equiv_pos_site_id
 _symmetry_equiv_pos_as_xyz
  1  'x, y, z'
loop_
 _atom_site_type_symbol
 _atom_site_label
 _atom_site_symmetry_multiplicity
 _atom_site_fract_x
 _atom_site_fract_y
 _atom_site_fract_z
 _atom_site_occupancy
  O  O0  1  0.66890108  0.46909042  -0.22860686  1
  O  O1  1  1.21527630  0.46817643  0.12565199  1
  O  O2  1  0.70036873  0.72532507  0.12019527  1
  O  O3  1  0.76647689  0.22622091  0.18705486  1
  Si  Si4  1  0.93850737  0.09460322  0.44828685  1
  Si  Si5  1  0.44192802  0.59529472  -0.05060817  1
  O  O6  1  0.11133589  0.22650000  0.70799033  1
  O  O7  1  0.18542896  0.72635679  0.77920199  1
  O  O8  1  0.76172535  0.96635687  0.67334940  1
  O  O9  1  0.11834163  -0.03304973  1.22479113  1
  Si  Si10  1  -0.05842630  -0.15666687  0.94890918  1
  Si  Si11  1  0.94077014  0.34923213  0.94901010  1
